<configuration>
	<input>
		<net-file value="road.net.xml"/>
		<route-files value="road.rou.xml"/>
		<additional-files value="road.add.xml"/>
	</input>
</configuration>

